Version 4
SHEET 1 880 680
WIRE -80 96 -400 96
WIRE 160 96 16 96
WIRE 368 96 160 96
WIRE 160 160 160 96
WIRE -400 224 -400 96
WIRE 0 288 0 144
WIRE 160 288 160 224
WIRE 160 288 0 288
WIRE 0 352 0 288
WIRE 368 352 368 96
WIRE -400 528 -400 304
WIRE 0 528 0 432
WIRE 0 528 -400 528
WIRE 368 528 368 432
WIRE 368 528 0 528
WIRE -400 576 -400 528
FLAG -400 576 0
SYMBOL voltage -400 208 R0
WINDOW 123 0 0 Left 0
WINDOW 39 0 0 Left 0
SYMATTR InstName V1
SYMATTR Value 12
SYMBOL pmos -80 144 R270
SYMATTR InstName M1
SYMATTR Value AO4630_P
SYMBOL zener 176 224 R180
WINDOW 0 24 64 Left 2
WINDOW 3 24 0 Left 2
SYMATTR InstName D1
SYMBOL res -16 336 R0
SYMATTR InstName R1
SYMATTR Value 1k
SYMBOL res 352 336 R0
SYMATTR InstName R2
SYMATTR Value 500k
TEXT -432 600 Left 2 !.tran 0 1 0 0.1
